psse/psse-converter/src/main/resources/IEEE_118_bus.xiidm
<?xml version="1.0" encoding="UTF-8"?>
<iidm:network xmlns:iidm="http://www.powsybl.org/schema/iidm/1_4" xmlns:slt="http://www.powsybl.org/schema/iidm/ext/slack_terminal/1_0" id="IEEE_118_bus" caseDate="2016-01-01T10:00:00.000+02:00" forecastDistance="0" sourceFormat="PSS/E">
    <iidm:substation id="S14">
        <iidm:voltageLevel id="VL1" nominalV="1.0" topologyKind="BUS_BREAKER">
            <iidm:busBreakerTopology>
                <iidm:bus id="B1" name="Riversde    " v="0.955" angle="10.9828"/>
            </iidm:busBreakerTopology>
            <iidm:generator id="B1-G1 " energySource="OTHER" minP="-10000.0" maxP="10000.0" voltageRegulatorOn="true" targetP="0.0" targetV="0.955" targetQ="-3.104" bus="B1" connectableBus="B1">
                <iidm:minMaxReactiveLimits minQ="-5.0" maxQ="15.0"/>
            </iidm:generator>
            <iidm:load id="B1-L1 " loadType="UNDEFINED" p0="51.0" q0="27.0" bus="B1" connectableBus="B1"/>
        </iidm:voltageLevel>
    </iidm:substation>
    <iidm:substation id="S19">
        <iidm:voltageLevel id="VL2" nominalV="1.0" topologyKind="BUS_BREAKER">
            <iidm:busBreakerTopology>
                <iidm:bus id="B2" name="Pokagon     " v="0.97139" angle="11.5228"/>
            </iidm:busBreakerTopology>
            <iidm:load id="B2-L1 " loadType="UNDEFINED" p0="20.0" q0="9.0" bus="B2" connectableBus="B2"/>
        </iidm:voltageLevel>
    </iidm:substation>
    <iidm:substation id="S17">
        <iidm:voltageLevel id="VL3" nominalV="1.0" topologyKind="BUS_BREAKER">
            <iidm:busBreakerTopology>
                <iidm:bus id="B3" name="HickryCk    " v="0.96769" angle="11.8662"/>
            </iidm:busBreakerTopology>
            <iidm:load id="B3-L1 " loadType="UNDEFINED" p0="39.0" q0="10.0" bus="B3" connectableBus="B3"/>
        </iidm:voltageLevel>
    </iidm:substation>
    <iidm:substation id="S23">
        <iidm:voltageLevel id="VL4" nominalV="1.0" topologyKind="BUS_BREAKER">
            <iidm:busBreakerTopology>
                <iidm:bus id="B4" name="NwCarlsl    " v="0.998" angle="15.5836"/>
            </iidm:busBreakerTopology>
            <iidm:generator id="B4-G1 " energySource="OTHER" minP="-10000.0" maxP="10000.0" voltageRegulatorOn="true" targetP="0.0" targetV="0.998" targetQ="-15.005" bus="B4" connectableBus="B4">
                <iidm:minMaxReactiveLimits minQ="-300.0" maxQ="300.0"/>
            </iidm:generator>
            <iidm:load id="B4-L1 " loadType="UNDEFINED" p0="39.0" q0="12.0" bus="B4" connectableBus="B4"/>
        </iidm:voltageLevel>
    </iidm:substation>
    <iidm:substation id="S21">
        <iidm:voltageLevel id="VL5" nominalV="1.0" topologyKind="BUS_BREAKER">
            <iidm:busBreakerTopology>
                <iidm:bus id="B5" name="Olive       " v="1.00198" angle="16.0287"/>
            </iidm:busBreakerTopology>
            <iidm:shunt id="B5-SH 1" sectionCount="1" voltageRegulatorOn="false" bus="B5" connectableBus="B5">
                <iidm:shuntLinearModel bPerSection="-40.0" maximumSectionCount="1"/>
            </iidm:shunt>
        </iidm:voltageLevel>
        <iidm:voltageLevel id="VL8" nominalV="1.0" topologyKind="BUS_BREAKER">
            <iidm:busBreakerTopology>
                <iidm:bus id="B8" name="Olive       " v="1.015" angle="21.0492"/>
            </iidm:busBreakerTopology>
            <iidm:generator id="B8-G1 " energySource="OTHER" minP="-10000.0" maxP="10000.0" voltageRegulatorOn="true" targetP="0.0" targetV="1.015" targetQ="62.758" bus="B8" connectableBus="B8">
                <iidm:minMaxReactiveLimits minQ="-300.0" maxQ="300.0"/>
            </iidm:generator>
            <iidm:load id="B8-L1 " loadType="UNDEFINED" p0="28.0" q0="0.0" bus="B8" connectableBus="B8"/>
        </iidm:voltageLevel>
        <iidm:twoWindingsTransformer id="T-8-5-1 " r="0.0" x="2.6700000000000004E-4" g="0.0" b="0.0" ratedU1="0.985" ratedU2="1.0" bus1="B8" connectableBus1="B8" voltageLevelId1="VL8" bus2="B5" connectableBus2="B5" voltageLevelId2="VL5"/>
    </iidm:substation>
    <iidm:substation id="S27">
        <iidm:voltageLevel id="VL6" nominalV="1.0" topologyKind="BUS_BREAKER">
            <iidm:busBreakerTopology>
                <iidm:bus id="B6" name="Kankakee    " v="0.99" angle="13.3018"/>
            </iidm:busBreakerTopology>
            <iidm:generator id="B6-G1 " energySource="OTHER" minP="-10000.0" maxP="10000.0" voltageRegulatorOn="true" targetP="0.0" targetV="0.99" targetQ="15.93" bus="B6" connectableBus="B6">
                <iidm:minMaxReactiveLimits minQ="-13.0" maxQ="50.0"/>
            </iidm:generator>
            <iidm:load id="B6-L1 " loadType="UNDEFINED" p0="52.0" q0="22.0" bus="B6" connectableBus="B6"/>
        </iidm:voltageLevel>
    </iidm:substation>
    <iidm:substation id="S25">
        <iidm:voltageLevel id="VL7" nominalV="1.0" topologyKind="BUS_BREAKER">
            <iidm:busBreakerTopology>
                <iidm:bus id="B7" name="JacksnRd    " v="0.98933" angle="12.8575"/>
            </iidm:busBreakerTopology>
            <iidm:load id="B7-L1 " loadType="UNDEFINED" p0="19.0" q0="2.0" bus="B7" connectableBus="B7"/>
        </iidm:voltageLevel>
    </iidm:substation>
    <iidm:substation id="S29">
        <iidm:voltageLevel id="VL9" nominalV="1.0" topologyKind="BUS_BREAKER">
            <iidm:busBreakerTopology>
                <iidm:bus id="B9" name="Bequine     " v="1.04292" angle="28.3033"/>
            </iidm:busBreakerTopology>
        </iidm:voltageLevel>
    </iidm:substation>
    <iidm:substation id="S63">
        <iidm:voltageLevel id="VL10" nominalV="1.0" topologyKind="BUS_BREAKER">
            <iidm:busBreakerTopology>
                <iidm:bus id="B10" name="Breed       " v="1.05" angle="35.8842"/>
            </iidm:busBreakerTopology>
            <iidm:generator id="B10-G1 " energySource="OTHER" minP="-10000.0" maxP="10000.0" voltageRegulatorOn="true" targetP="450.0" targetV="1.05" targetQ="-51.042" bus="B10" connectableBus="B10">
                <iidm:minMaxReactiveLimits minQ="-147.0" maxQ="200.0"/>
            </iidm:generator>
        </iidm:voltageLevel>
    </iidm:substation>
    <iidm:substation id="S66">
        <iidm:voltageLevel id="VL11" nominalV="1.0" topologyKind="BUS_BREAKER">
            <iidm:busBreakerTopology>
                <iidm:bus id="B11" name="SouthBnd    " v="0.98509" angle="13.0161"/>
            </iidm:busBreakerTopology>
            <iidm:load id="B11-L1 " loadType="UNDEFINED" p0="70.0" q0="23.0" bus="B11" connectableBus="B11"/>
        </iidm:voltageLevel>
    </iidm:substation>
    <iidm:substation id="S69">
        <iidm:voltageLevel id="VL12" nominalV="1.0" topologyKind="BUS_BREAKER">
            <iidm:busBreakerTopology>
                <iidm:bus id="B12" name="TwinBrch    " v="0.99" angle="12.4993"/>
            </iidm:busBreakerTopology>
            <iidm:generator id="B12-G1 " energySource="OTHER" minP="-10000.0" maxP="10000.0" voltageRegulatorOn="true" targetP="85.0" targetV="0.99" targetQ="91.274" bus="B12" connectableBus="B12">
                <iidm:minMaxReactiveLimits minQ="-35.0" maxQ="120.0"/>
            </iidm:generator>
            <iidm:load id="B12-L1 " loadType="UNDEFINED" p0="47.0" q0="10.0" bus="B12" connectableBus="B12"/>
        </iidm:voltageLevel>
    </iidm:substation>
    <iidm:substation id="S51">
        <iidm:voltageLevel id="VL13" nominalV="1.0" topologyKind="BUS_BREAKER">
            <iidm:busBreakerTopology>
                <iidm:bus id="B13" name="Concord     " v="0.9683" angle="11.6412"/>
            </iidm:busBreakerTopology>
            <iidm:load id="B13-L1 " loadType="UNDEFINED" p0="34.0" q0="16.0" bus="B13" connectableBus="B13"/>
        </iidm:voltageLevel>
    </iidm:substation>
    <iidm:substation id="S52">
        <iidm:voltageLevel id="VL14" nominalV="1.0" topologyKind="BUS_BREAKER">
            <iidm:busBreakerTopology>
                <iidm:bus id="B14" name="GoshenJt    " v="0.98359" angle="11.7831"/>
            </iidm:busBreakerTopology>
            <iidm:load id="B14-L1 " loadType="UNDEFINED" p0="14.0" q0="1.0" bus="B14" connectableBus="B14"/>
        </iidm:voltageLevel>
    </iidm:substation>
    <iidm:substation id="S53">
        <iidm:voltageLevel id="VL15" nominalV="1.0" topologyKind="BUS_BREAKER">
            <iidm:busBreakerTopology>
                <iidm:bus id="B15" name="FtWayne     " v="0.97" angle="11.4894"/>
            </iidm:busBreakerTopology>
            <iidm:generator id="B15-G1 " energySource="OTHER" minP="-10000.0" maxP="10000.0" voltageRegulatorOn="true" targetP="0.0" targetV="0.97" targetQ="3.06" bus="B15" connectableBus="B15">
                <iidm:minMaxReactiveLimits minQ="-10.0" maxQ="30.0"/>
            </iidm:generator>
            <iidm:load id="B15-L1 " loadType="UNDEFINED" p0="90.0" q0="30.0" bus="B15" connectableBus="B15"/>
        </iidm:voltageLevel>
    </iidm:substation>
    <iidm:substation id="S54">
        <iidm:voltageLevel id="VL16" nominalV="1.0" topologyKind="BUS_BREAKER">
            <iidm:busBreakerTopology>
                <iidm:bus id="B16" name="N. E.       " v="0.98391" angle="12.1978"/>
            </iidm:busBreakerTopology>
            <iidm:load id="B16-L1 " loadType="UNDEFINED" p0="25.0" q0="10.0" bus="B16" connectableBus="B16"/>
        </iidm:voltageLevel>
    </iidm:substation>
    <iidm:substation id="S55">
        <iidm:voltageLevel id="VL17" nominalV="1.0" topologyKind="BUS_BREAKER">
            <iidm:busBreakerTopology>
                <iidm:bus id="B17" name="Sorenson    " v="0.99513" angle="14.0056"/>
            </iidm:busBreakerTopology>
            <iidm:load id="B17-L1 " loadType="UNDEFINED" p0="11.0" q0="3.0" bus="B17" connectableBus="B17"/>
        </iidm:voltageLevel>
        <iidm:voltageLevel id="VL30" nominalV="1.0" topologyKind="BUS_BREAKER">
            <iidm:busBreakerTopology>
                <iidm:bus id="B30" name="Sorenson    " v="0.98552" angle="19.0402"/>
            </iidm:busBreakerTopology>
        </iidm:voltageLevel>
        <iidm:twoWindingsTransformer id="T-30-17-1 " r="0.0" x="3.88E-4" g="0.0" b="0.0" ratedU1="0.96" ratedU2="1.0" bus1="B30" connectableBus1="B30" voltageLevelId1="VL30" bus2="B17" connectableBus2="B17" voltageLevelId2="VL17"/>
    </iidm:substation>
    <iidm:substation id="S56">
        <iidm:voltageLevel id="VL18" nominalV="1.0" topologyKind="BUS_BREAKER">
            <iidm:busBreakerTopology>
                <iidm:bus id="B18" name="McKinley    " v="0.973" angle="11.792"/>
            </iidm:busBreakerTopology>
            <iidm:generator id="B18-G1 " energySource="OTHER" minP="-10000.0" maxP="10000.0" voltageRegulatorOn="true" targetP="0.0" targetV="0.973" targetQ="25.532" bus="B18" connectableBus="B18">
                <iidm:minMaxReactiveLimits minQ="-16.0" maxQ="50.0"/>
            </iidm:generator>
            <iidm:load id="B18-L1 " loadType="UNDEFINED" p0="60.0" q0="34.0" bus="B18" connectableBus="B18"/>
        </iidm:voltageLevel>
    </iidm:substation>
    <iidm:substation id="S57">
        <iidm:voltageLevel id="VL19" nominalV="1.0" topologyKind="BUS_BREAKER">
            <iidm:busBreakerTopology>
                <iidm:bus id="B19" name="Lincoln     " v="0.96343" angle="11.3074"/>
            </iidm:busBreakerTopology>
            <iidm:generator id="B19-G1 " energySource="OTHER" minP="-10000.0" maxP="10000.0" voltageRegulatorOn="true" targetP="0.0" targetV="0.962" targetQ="-8.0" bus="B19" connectableBus="B19">
                <iidm:minMaxReactiveLimits minQ="-8.0" maxQ="24.0"/>
            </iidm:generator>
            <iidm:load id="B19-L1 " loadType="UNDEFINED" p0="45.0" q0="25.0" bus="B19" connectableBus="B19"/>
        </iidm:voltageLevel>
    </iidm:substation>
    <iidm:substation id="S40">
        <iidm:voltageLevel id="VL20" nominalV="1.0" topologyKind="BUS_BREAKER">
            <iidm:busBreakerTopology>
                <iidm:bus id="B20" name="Adams       " v="0.95806" angle="12.1872"/>
            </iidm:busBreakerTopology>
            <iidm:load id="B20-L1 " loadType="UNDEFINED" p0="18.0" q0="3.0" bus="B20" connectableBus="B20"/>
        </iidm:voltageLevel>
    </iidm:substation>
    <iidm:substation id="S42">
        <iidm:voltageLevel id="VL21" nominalV="1.0" topologyKind="BUS_BREAKER">
            <iidm:busBreakerTopology>
                <iidm:bus id="B21" name="Jay         " v="0.95862" angle="13.7751"/>
            </iidm:busBreakerTopology>
            <iidm:load id="B21-L1 " loadType="UNDEFINED" p0="14.0" q0="8.0" bus="B21" connectableBus="B21"/>
        </iidm:voltageLevel>
    </iidm:substation>
    <iidm:substation id="S44">
        <iidm:voltageLevel id="VL22" nominalV="1.0" topologyKind="BUS_BREAKER">
            <iidm:busBreakerTopology>
                <iidm:bus id="B22" name="Randolph    " v="0.96965" angle="16.3296"/>
            </iidm:busBreakerTopology>
            <iidm:load id="B22-L1 " loadType="UNDEFINED" p0="10.0" q0="5.0" bus="B22" connectableBus="B22"/>
        </iidm:voltageLevel>
    </iidm:substation>
    <iidm:substation id="S46">
        <iidm:voltageLevel id="VL23" nominalV="1.0" topologyKind="BUS_BREAKER">
            <iidm:busBreakerTopology>
                <iidm:bus id="B23" name="CollCrnr    " v="0.99966" angle="21.2503"/>
            </iidm:busBreakerTopology>
            <iidm:load id="B23-L1 " loadType="UNDEFINED" p0="7.0" q0="3.0" bus="B23" connectableBus="B23"/>
        </iidm:voltageLevel>
    </iidm:substation>
    <iidm:substation id="S34">
        <iidm:voltageLevel id="VL24" nominalV="1.0" topologyKind="BUS_BREAKER">
            <iidm:busBreakerTopology>
                <iidm:bus id="B24" name="Trenton     " v="0.992" angle="21.1181"/>
            </iidm:busBreakerTopology>
            <iidm:generator id="B24-G1 " energySource="OTHER" minP="-10000.0" maxP="10000.0" voltageRegulatorOn="true" targetP="0.0" targetV="0.992" targetQ="-15.282" bus="B24" connectableBus="B24">
                <iidm:minMaxReactiveLimits minQ="-300.0" maxQ="300.0"/>
            </iidm:generator>
            <iidm:load id="B24-L1 " loadType="UNDEFINED" p0="13.0" q0="0.0" bus="B24" connectableBus="B24"/>
        </iidm:voltageLevel>
    </iidm:substation>
    <iidm:substation id="S35">
        <iidm:voltageLevel id="VL25" nominalV="1.0" topologyKind="BUS_BREAKER">
            <iidm:busBreakerTopology>
                <iidm:bus id="B25" name="TannrsCk    " v="1.05" angle="28.1844"/>
            </iidm:busBreakerTopology>
            <iidm:generator id="B25-G1 " energySource="OTHER" minP="-10000.0" maxP="10000.0" voltageRegulatorOn="true" targetP="220.0" targetV="1.05" targetQ="49.798" bus="B25" connectableBus="B25">
                <iidm:minMaxReactiveLimits minQ="-47.0" maxQ="140.0"/>
            </iidm:generator>
        </iidm:voltageLevel>
        <iidm:voltageLevel id="VL26" nominalV="1.0" topologyKind="BUS_BREAKER">
            <iidm:busBreakerTopology>
                <iidm:bus id="B26" name="TannrsCk    " v="1.015" angle="29.965"/>
            </iidm:busBreakerTopology>
            <iidm:generator id="B26-G1 " energySource="OTHER" minP="-10000.0" maxP="10000.0" voltageRegulatorOn="true" targetP="314.0" targetV="1.015" targetQ="9.905" bus="B26" connectableBus="B26">
                <iidm:minMaxReactiveLimits minQ="-1000.0" maxQ="1000.0"/>
            </iidm:generator>
        </iidm:voltageLevel>
        <iidm:twoWindingsTransformer id="T-26-25-1 " r="0.0" x="3.8199999999999996E-4" g="0.0" b="0.0" ratedU1="0.96" ratedU2="1.0" bus1="B26" connectableBus1="B26" voltageLevelId1="VL26" bus2="B25" connectableBus2="B25" voltageLevelId2="VL25"/>
    </iidm:substation>
    <iidm:substation id="S36">
        <iidm:voltageLevel id="VL27" nominalV="1.0" topologyKind="BUS_BREAKER">
            <iidm:busBreakerTopology>
                <iidm:bus id="B27" name="Madison     " v="0.968" angle="15.6126"/>
            </iidm:busBreakerTopology>
            <iidm:generator id="B27-G1 " energySource="OTHER" minP="-10000.0" maxP="10000.0" voltageRegulatorOn="true" targetP="0.0" targetV="0.968" targetQ="2.831" bus="B27" connectableBus="B27">
                <iidm:minMaxReactiveLimits minQ="-300.0" maxQ="300.0"/>
            </iidm:generator>
            <iidm:load id="B27-L1 " loadType="UNDEFINED" p0="71.0" q0="13.0" bus="B27" connectableBus="B27"/>
        </iidm:voltageLevel>
    </iidm:substation>
    <iidm:substation id="S37">
        <iidm:voltageLevel id="VL28" nominalV="1.0" topologyKind="BUS_BREAKER">
            <iidm:busBreakerTopology>
                <iidm:bus id="B28" name="Mullin      " v="0.96157" angle="13.888"/>
            </iidm:busBreakerTopology>
            <iidm:load id="B28-L1 " loadType="UNDEFINED" p0="17.0" q0="7.0" bus="B28" connectableBus="B28"/>
        </iidm:voltageLevel>
    </iidm:substation>
    <iidm:substation id="S38">
        <iidm:voltageLevel id="VL29" nominalV="1.0" topologyKind="BUS_BREAKER">
            <iidm:busBreakerTopology>
                <iidm:bus id="B29" name="Grant       " v="0.96322" angle="12.8956"/>
            </iidm:busBreakerTopology>
            <iidm:load id="B29-L1 " loadType="UNDEFINED" p0="24.0" q0="4.0" bus="B29" connectableBus="B29"/>
        </iidm:voltageLevel>
    </iidm:substation>
    <iidm:substation id="S90">
        <iidm:voltageLevel id="VL31" nominalV="1.0" topologyKind="BUS_BREAKER">
            <iidm:busBreakerTopology>
                <iidm:bus id="B31" name="DeerCrk     " v="0.967" angle="13.0125"/>
            </iidm:busBreakerTopology>
            <iidm:generator id="B31-G1 " energySource="OTHER" minP="-10000.0" maxP="10000.0" voltageRegulatorOn="true" targetP="7.0" targetV="0.967" targetQ="31.976" bus="B31" connectableBus="B31">
                <iidm:minMaxReactiveLimits minQ="-300.0" maxQ="300.0"/>
            </iidm:generator>
            <iidm:load id="B31-L1 " loadType="UNDEFINED" p0="43.0" q0="27.0" bus="B31" connectableBus="B31"/>
        </iidm:voltageLevel>
    </iidm:substation>
    <iidm:substation id="S91">
        <iidm:voltageLevel id="VL32" nominalV="1.0" topologyKind="BUS_BREAKER">
            <iidm:busBreakerTopology>
                <iidm:bus id="B32" name="Delaware    " v="0.96359" angle="15.06"/>
            </iidm:busBreakerTopology>
            <iidm:generator id="B32-G1 " energySource="OTHER" minP="-10000.0" maxP="10000.0" voltageRegulatorOn="true" targetP="0.0" targetV="0.963" targetQ="-14.0" bus="B32" connectableBus="B32">
                <iidm:minMaxReactiveLimits minQ="-14.0" maxQ="42.0"/>
            </iidm:generator>
            <iidm:load id="B32-L1 " loadType="UNDEFINED" p0="59.0" q0="23.0" bus="B32" connectableBus="B32"/>
        </iidm:voltageLevel>
    </iidm:substation>
    <iidm:substation id="S92">
        <iidm:voltageLevel id="VL33" nominalV="1.0" topologyKind="BUS_BREAKER">
            <iidm:busBreakerTopology>
                <iidm:bus id="B33" name="Haviland    " v="0.97156" angle="10.8645"/>
            </iidm:busBreakerTopology>
            <iidm:load id="B33-L1 " loadType="UNDEFINED" p0="23.0" q0="9.0" bus="B33" connectableBus="B33"/>
        </iidm:voltageLevel>
    </iidm:substation>
    <iidm:substation id="S93">
        <iidm:voltageLevel id="VL34" nominalV="1.0" topologyKind="BUS_BREAKER">
            <iidm:busBreakerTopology>
                <iidm:bus id="B34" name="Rockhill    " v="0.98586" angle="11.5065"/>
            </iidm:busBreakerTopology>
            <iidm:generator id="B34-G1 " energySource="OTHER" minP="-10000.0" maxP="10000.0" voltageRegulatorOn="true" targetP="0.0" targetV="0.984" targetQ="-8.0" bus="B34" connectableBus="B34">
                <iidm:minMaxReactiveLimits minQ="-8.0" maxQ="24.0"/>
            </iidm:generator>
            <iidm:load id="B34-L1 " loadType="UNDEFINED" p0="59.0" q0="26.0" bus="B34" connectableBus="B34"/>
            <iidm:shunt id="B34-SH 1" sectionCount="1" voltageRegulatorOn="false" bus="B34" connectableBus="B34">
                <iidm:shuntLinearModel bPerSection="14.0" maximumSectionCount="1"/>
            </iidm:shunt>
        </iidm:voltageLevel>
    </iidm:substation>
    <iidm:substation id="S86">
        <iidm:voltageLevel id="VL35" nominalV="1.0" topologyKind="BUS_BREAKER">
            <iidm:busBreakerTopology>
                <iidm:bus id="B35" name="WestLima    " v="0.98068" angle="11.0793"/>
            </iidm:busBreakerTopology>
            <iidm:load id="B35-L1 " loadType="UNDEFINED" p0="33.0" q0="9.0" bus="B35" connectableBus="B35"/>
        </iidm:voltageLevel>
    </iidm:substation>
    <iidm:substation id="S87">
        <iidm:voltageLevel id="VL36" nominalV="1.0" topologyKind="BUS_BREAKER">
            <iidm:busBreakerTopology>
                <iidm:bus id="B36" name="Sterling    " v="0.98" angle="11.0837"/>
            </iidm:busBreakerTopology>
            <iidm:generator id="B36-G1 " energySource="OTHER" minP="-10000.0" maxP="10000.0" voltageRegulatorOn="true" targetP="0.0" targetV="0.98" targetQ="-1.252" bus="B36" connectableBus="B36">
                <iidm:minMaxReactiveLimits minQ="-8.0" maxQ="24.0"/>
            </iidm:generator>
            <iidm:load id="B36-L1 " loadType="UNDEFINED" p0="31.0" q0="17.0" bus="B36" connectableBus="B36"/>
        </iidm:voltageLevel>
    </iidm:substation>
    <iidm:substation id="S88">
        <iidm:voltageLevel id="VL37" nominalV="1.0" topologyKind="BUS_BREAKER">
            <iidm:busBreakerTopology>
                <iidm:bus id="B37" name="EastLima    " v="0.99198" angle="11.9703"/>
            </iidm:busBreakerTopology>
            <iidm:shunt id="B37-SH 1" sectionCount="1" voltageRegulatorOn="false" bus="B37" connectableBus="B37">
                <iidm:shuntLinearModel bPerSection="-25.0" maximumSectionCount="1"/>
            </iidm:shunt>
        </iidm:voltageLevel>
        <iidm:voltageLevel id="VL38" nominalV="1.0" topologyKind="BUS_BREAKER">
            <iidm:busBreakerTopology>
                <iidm:bus id="B38" name="EastLima    " v="0.96198" angle="17.1072"/>
            </iidm:busBreakerTopology>
        </iidm:voltageLevel>
        <iidm:twoWindingsTransformer id="T-38-37-1 " r="0.0" x="3.75E-4" g="0.0" b="0.0" ratedU1="0.935" ratedU2="1.0" bus1="B38" connectableBus1="B38" voltageLevelId1="VL38" bus2="B37" connectableBus2="B37" voltageLevelId2="VL37"/>
    </iidm:substation>
    <iidm:substation id="S89">
        <iidm:voltageLevel id="VL39" nominalV="1.0" topologyKind="BUS_BREAKER">
            <iidm:busBreakerTopology>
                <iidm:bus id="B39" name="NwLibrty    " v="0.97045" angle="8.5978"/>
            </iidm:busBreakerTopology>
            <iidm:load id="B39-L1 " loadType="UNDEFINED" p0="27.0" q0="11.0" bus="B39" connectableBus="B39"/>
        </iidm:voltageLevel>
    </iidm:substation>
    <iidm:substation id="S75">
        <iidm:voltageLevel id="VL40" nominalV="1.0" topologyKind="BUS_BREAKER">
            <iidm:busBreakerTopology>
                <iidm:bus id="B40" name="West End    " v="0.97" angle="7.524"/>
            </iidm:busBreakerTopology>
            <iidm:generator id="B40-G1 " energySource="OTHER" minP="-10000.0" maxP="10000.0" voltageRegulatorOn="true" targetP="0.0" targetV="0.97" targetQ="26.886" bus="B40" connectableBus="B40">
                <iidm:minMaxReactiveLimits minQ="-300.0" maxQ="300.0"/>
            </iidm:generator>
            <iidm:load id="B40-L1 " loadType="UNDEFINED" p0="66.0" q0="23.0" bus="B40" connectableBus="B40"/>
        </iidm:voltageLevel>
    </iidm:substation>
    <iidm:substation id="S76">
        <iidm:voltageLevel id="VL41" nominalV="1.0" topologyKind="BUS_BREAKER">
            <iidm:busBreakerTopology>
                <iidm:bus id="B41" name="S.Tiffin    " v="0.96683" angle="7.0779"/>
            </iidm:busBreakerTopology>
            <iidm:load id="B41-L1 " loadType="UNDEFINED" p0="37.0" q0="10.0" bus="B41" connectableBus="B41"/>
        </iidm:voltageLevel>
    </iidm:substation>
    <iidm:substation id="S77">
        <iidm:voltageLevel id="VL42" nominalV="1.0" topologyKind="BUS_BREAKER">
            <iidm:busBreakerTopology>
                <iidm:bus id="B42" name="Howard      " v="0.985" angle="8.6734"/>
            </iidm:busBreakerTopology>
            <iidm:generator id="B42-G1 " energySource="OTHER" minP="-10000.0" maxP="10000.0" voltageRegulatorOn="true" targetP="0.0" targetV="0.985" targetQ="41.004" bus="B42" connectableBus="B42">
                <iidm:minMaxReactiveLimits minQ="-300.0" maxQ="300.0"/>
            </iidm:generator>
            <iidm:load id="B42-L1 " loadType="UNDEFINED" p0="96.0" q0="23.0" bus="B42" connectableBus="B42"/>
        </iidm:voltageLevel>
    </iidm:substation>
    <iidm:substation id="S78">
        <iidm:voltageLevel id="VL43" nominalV="1.0" topologyKind="BUS_BREAKER">
            <iidm:busBreakerTopology>
                <iidm:bus id="B43" name="S.Kenton    " v="0.97848" angle="11.4604"/>
            </iidm:busBreakerTopology>
            <iidm:load id="B43-L1 " loadType="UNDEFINED" p0="18.0" q0="7.0" bus="B43" connectableBus="B43"/>
        </iidm:voltageLevel>
    </iidm:substation>
    <iidm:substation id="S79">
        <iidm:voltageLevel id="VL44" nominalV="1.0" topologyKind="BUS_BREAKER">
            <iidm:busBreakerTopology>
                <iidm:bus id="B44" name="WMVernon    " v="0.98501" angle="13.946"/>
            </iidm:busBreakerTopology>
            <iidm:load id="B44-L1 " loadType="UNDEFINED" p0="16.0" q0="8.0" bus="B44" connectableBus="B44"/>
            <iidm:shunt id="B44-SH 1" sectionCount="1" voltageRegulatorOn="false" bus="B44" connectableBus="B44">
                <iidm:shuntLinearModel bPerSection="10.0" maximumSectionCount="1"/>
            </iidm:shunt>
        </iidm:voltageLevel>
    </iidm:substation>
    <iidm:substation id="S80">
        <iidm:voltageLevel id="VL45" nominalV="1.0" topologyKind="BUS_BREAKER">
            <iidm:busBreakerTopology>
                <iidm:bus id="B45" name="N.Newark    " v="0.98665" angle="15.7768"/>
            </iidm:busBreakerTopology>
            <iidm:load id="B45-L1 " loadType="UNDEFINED" p0="53.0" q0="22.0" bus="B45" connectableBus="B45"/>
            <iidm:shunt id="B45-SH 1" sectionCount="1" voltageRegulatorOn="false" bus="B45" connectableBus="B45">
                <iidm:shuntLinearModel bPerSection="10.0" maximumSectionCount="1"/>
            </iidm:shunt>
        </iidm:voltageLevel>
    </iidm:substation>
    <iidm:substation id="S71">
        <iidm:voltageLevel id="VL46" nominalV="1.0" topologyKind="BUS_BREAKER">
            <iidm:busBreakerTopology>
                <iidm:bus id="B46" name="W.Lancst    " v="1.005" angle="18.5827"/>
            </iidm:busBreakerTopology>
            <iidm:generator id="B46-G1 " energySource="OTHER" minP="-10000.0" maxP="10000.0" voltageRegulatorOn="true" targetP="19.0" targetV="1.005" targetQ="-5.231" bus="B46" connectableBus="B46">
                <iidm:minMaxReactiveLimits minQ="-100.0" maxQ="100.0"/>
            </iidm:generator>
            <iidm:load id="B46-L1 " loadType="UNDEFINED" p0="28.0" q0="10.0" bus="B46" connectableBus="B46"/>
            <iidm:shunt id="B46-SH 1" sectionCount="1" voltageRegulatorOn="false" bus="B46" connectableBus="B46">
                <iidm:shuntLinearModel bPerSection="10.0" maximumSectionCount="1"/>
            </iidm:shunt>
        </iidm:voltageLevel>
    </iidm:substation>
    <iidm:substation id="S72">
        <iidm:voltageLevel id="VL47" nominalV="1.0" topologyKind="BUS_BREAKER">
            <iidm:busBreakerTopology>
                <iidm:bus id="B47" name="Crooksvl    " v="1.01705" angle="20.8051"/>
            </iidm:busBreakerTopology>
            <iidm:load id="B47-L1 " loadType="UNDEFINED" p0="34.0" q0="0.0" bus="B47" connectableBus="B47"/>
        </iidm:voltageLevel>
    </iidm:substation>
    <iidm:substation id="S73">
        <iidm:voltageLevel id="VL48" nominalV="1.0" topologyKind="BUS_BREAKER">
            <iidm:busBreakerTopology>
                <iidm:bus id="B48" name="Zanesvll    " v="1.02063" angle="20.0253"/>
            </iidm:busBreakerTopology>
            <iidm:load id="B48-L1 " loadType="UNDEFINED" p0="20.0" q0="11.0" bus="B48" connectableBus="B48"/>
            <iidm:shunt id="B48-SH 1" sectionCount="1" voltageRegulatorOn="false" bus="B48" connectableBus="B48">
                <iidm:shuntLinearModel bPerSection="15.0" maximumSectionCount="1"/>
            </iidm:shunt>
        </iidm:voltageLevel>
    </iidm:substation>
    <iidm:substation id="S74">
        <iidm:voltageLevel id="VL49" nominalV="1.0" topologyKind="BUS_BREAKER">
            <iidm:busBreakerTopology>
                <iidm:bus id="B49" name="Philo       " v="1.025" angle="21.0284"/>
            </iidm:busBreakerTopology>
            <iidm:generator id="B49-G1 " energySource="OTHER" minP="-10000.0" maxP="10000.0" voltageRegulatorOn="true" targetP="204.0" targetV="1.025" targetQ="115.647" bus="B49" connectableBus="B49">
                <iidm:minMaxReactiveLimits minQ="-85.0" maxQ="210.0"/>
            </iidm:generator>
            <iidm:load id="B49-L1 " loadType="UNDEFINED" p0="87.0" q0="30.0" bus="B49" connectableBus="B49"/>
        </iidm:voltageLevel>
    </iidm:substation>
    <iidm:substation id="S103">
        <iidm:voltageLevel id="VL50" nominalV="1.0" topologyKind="BUS_BREAKER">
            <iidm:busBreakerTopology>
                <iidm:bus id="B50" name="WCambrdg    " v="1.00108" angle="18.9894"/>
            </iidm:busBreakerTopology>
            <iidm:load id="B50-L1 " loadType="UNDEFINED" p0="17.0" q0="4.0" bus="B50" connectableBus="B50"/>
        </iidm:voltageLevel>
    </iidm:substation>
    <iidm:substation id="S104">
        <iidm:voltageLevel id="VL51" nominalV="1.0" topologyKind="BUS_BREAKER">
            <iidm:busBreakerTopology>
                <iidm:bus id="B51" name="Newcmrst    " v="0.96688" angle="16.3703"/>
            </iidm:busBreakerTopology>
            <iidm:load id="B51-L1 " loadType="UNDEFINED" p0="17.0" q0="8.0" bus="B51" connectableBus="B51"/>
        </iidm:voltageLevel>
    </iidm:substation>
    <iidm:substation id="S105">
        <iidm:voltageLevel id="VL52" nominalV="1.0" topologyKind="BUS_BREAKER">
            <iidm:busBreakerTopology>
                <iidm:bus id="B52" name="SCoshoct    " v="0.95682" angle="15.4169"/>
            </iidm:busBreakerTopology>
            <iidm:load id="B52-L1 " loadType="UNDEFINED" p0="18.0" q0="5.0" bus="B52" connectableBus="B52"/>
        </iidm:voltageLevel>
    </iidm:substation>
    <iidm:substation id="S106">
        <iidm:voltageLevel id="VL53" nominalV="1.0" topologyKind="BUS_BREAKER">
            <iidm:busBreakerTopology>
                <iidm:bus id="B53" name="Wooster     " v="0.94598" angle="14.4419"/>
            </iidm:busBreakerTopology>
            <iidm:load id="B53-L1 " loadType="UNDEFINED" p0="23.0" q0="11.0" bus="B53" connectableBus="B53"/>
        </iidm:voltageLevel>
    </iidm:substation>
    <iidm:substation id="S107">
        <iidm:voltageLevel id="VL54" nominalV="1.0" topologyKind="BUS_BREAKER">
            <iidm:busBreakerTopology>
                <iidm:bus id="B54" name="Torrey      " v="0.955" angle="15.3537"/>
            </iidm:busBreakerTopology>
            <iidm:generator id="B54-G1 " energySource="OTHER" minP="-10000.0" maxP="10000.0" voltageRegulatorOn="true" targetP="48.0" targetV="0.955" targetQ="3.902" bus="B54" connectableBus="B54">
                <iidm:minMaxReactiveLimits minQ="-300.0" maxQ="300.0"/>
            </iidm:generator>
            <iidm:load id="B54-L1 " loadType="UNDEFINED" p0="113.0" q0="32.0" bus="B54" connectableBus="B54"/>
        </iidm:voltageLevel>
    </iidm:substation>
    <iidm:substation id="S108">
        <iidm:voltageLevel id="VL55" nominalV="1.0" topologyKind="BUS_BREAKER">
            <iidm:busBreakerTopology>
                <iidm:bus id="B55" name="Wagenhls    " v="0.952" angle="15.0637"/>
            </iidm:busBreakerTopology>
            <iidm:generator id="B55-G1 " energySource="OTHER" minP="-10000.0" maxP="10000.0" voltageRegulatorOn="true" targetP="0.0" targetV="0.952" targetQ="4.664" bus="B55" connectableBus="B55">
                <iidm:minMaxReactiveLimits minQ="-8.0" maxQ="23.0"/>
            </iidm:generator>
            <iidm:load id="B55-L1 " loadType="UNDEFINED" p0="63.0" q0="22.0" bus="B55" connectableBus="B55"/>
        </iidm:voltageLevel>
    </iidm:substation>
    <iidm:substation id="S109">
        <iidm:voltageLevel id="VL56" nominalV="1.0" topologyKind="BUS_BREAKER">
            <iidm:busBreakerTopology>
                <iidm:bus id="B56" name="Sunnysde    " v="0.954" angle="15.2504"/>
            </iidm:busBreakerTopology>
            <iidm:generator id="B56-G1 " energySource="OTHER" minP="-10000.0" maxP="10000.0" voltageRegulatorOn="true" targetP="0.0" targetV="0.954" targetQ="-2.286" bus="B56" connectableBus="B56">
                <iidm:minMaxReactiveLimits minQ="-8.0" maxQ="15.0"/>
            </iidm:generator>
            <iidm:load id="B56-L1 " loadType="UNDEFINED" p0="84.0" q0="18.0" bus="B56" connectableBus="B56"/>
        </iidm:voltageLevel>
    </iidm:substation>
    <iidm:substation id="S101">
        <iidm:voltageLevel id="VL57" nominalV="1.0" topologyKind="BUS_BREAKER">
            <iidm:busBreakerTopology>
                <iidm:bus id="B57" name="WNwPhil1    " v="0.97058" angle="16.4552"/>
            </iidm:busBreakerTopology>
            <iidm:load id="B57-L1 " loadType="UNDEFINED" p0="12.0" q0="3.0" bus="B57" connectableBus="B57"/>
        </iidm:voltageLevel>
    </iidm:substation>
    <iidm:substation id="S102">
        <iidm:voltageLevel id="VL58" nominalV="1.0" topologyKind="BUS_BREAKER">
            <iidm:busBreakerTopology>
                <iidm:bus id="B58" name="WNwPhil2    " v="0.95904" angle="15.5984"/>
            </iidm:busBreakerTopology>
            <iidm:load id="B58-L1 " loadType="UNDEFINED" p0="12.0" q0="3.0" bus="B58" connectableBus="B58"/>
        </iidm:voltageLevel>
    </iidm:substation>
    <iidm:substation id="S98">
        <iidm:voltageLevel id="VL59" nominalV="1.0" topologyKind="BUS_BREAKER">
            <iidm:busBreakerTopology>
                <iidm:bus id="B59" name="Tidd        " v="0.985" angle="19.453"/>
            </iidm:busBreakerTopology>
            <iidm:generator id="B59-G1 " energySource="OTHER" minP="-10000.0" maxP="10000.0" voltageRegulatorOn="true" targetP="155.0" targetV="0.985" targetQ="76.834" bus="B59" connectableBus="B59">
                <iidm:minMaxReactiveLimits minQ="-60.0" maxQ="180.0"/>
            </iidm:generator>
            <iidm:load id="B59-L1 " loadType="UNDEFINED" p0="277.0" q0="113.0" bus="B59" connectableBus="B59"/>
        </iidm:voltageLevel>
        <iidm:voltageLevel id="VL63" nominalV="1.0" topologyKind="BUS_BREAKER">
            <iidm:busBreakerTopology>
                <iidm:bus id="B63" name="Tidd        " v="0.96874" angle="22.8316"/>
            </iidm:busBreakerTopology>
        </iidm:voltageLevel>
        <iidm:twoWindingsTransformer id="T-63-59-1 " r="0.0" x="3.8600000000000006E-4" g="0.0" b="0.0" ratedU1="0.96" ratedU2="1.0" bus1="B63" connectableBus1="B63" voltageLevelId1="VL63" bus2="B59" connectableBus2="B59" voltageLevelId2="VL59"/>
    </iidm:substation>
    <iidm:substation id="S95">
        <iidm:voltageLevel id="VL60" nominalV="1.0" topologyKind="BUS_BREAKER">
            <iidm:busBreakerTopology>
                <iidm:bus id="B60" name="SWKammer    " v="0.99316" angle="23.2343"/>
            </iidm:busBreakerTopology>
            <iidm:load id="B60-L1 " loadType="UNDEFINED" p0="78.0" q0="3.0" bus="B60" connectableBus="B60"/>
        </iidm:voltageLevel>
    </iidm:substation>
    <iidm:substation id="S96">
        <iidm:voltageLevel id="VL61" nominalV="1.0" topologyKind="BUS_BREAKER">
            <iidm:busBreakerTopology>
                <iidm:bus id="B61" name="W.Kammer    " v="0.995" angle="24.1257"/>
            </iidm:busBreakerTopology>
            <iidm:generator id="B61-G1 " energySource="OTHER" minP="-10000.0" maxP="10000.0" voltageRegulatorOn="true" targetP="160.0" targetV="0.995" targetQ="-40.394" bus="B61" connectableBus="B61">
                <iidm:minMaxReactiveLimits minQ="-100.0" maxQ="300.0"/>
            </iidm:generator>
        </iidm:voltageLevel>
        <iidm:voltageLevel id="VL64" nominalV="1.0" topologyKind="BUS_BREAKER">
            <iidm:busBreakerTopology>
                <iidm:bus id="B64" name="Kammer      " v="0.98374" angle="24.5973"/>
            </iidm:busBreakerTopology>
        </iidm:voltageLevel>
        <iidm:twoWindingsTransformer id="T-64-61-1 " r="0.0" x="2.68E-4" g="0.0" b="0.0" ratedU1="0.985" ratedU2="1.0" bus1="B64" connectableBus1="B64" voltageLevelId1="VL64" bus2="B61" connectableBus2="B61" voltageLevelId2="VL61"/>
    </iidm:substation>
    <iidm:substation id="S97">
        <iidm:voltageLevel id="VL62" nominalV="1.0" topologyKind="BUS_BREAKER">
            <iidm:busBreakerTopology>
                <iidm:bus id="B62" name="Natrium     " v="0.998" angle="23.5091"/>
            </iidm:busBreakerTopology>
            <iidm:generator id="B62-G1 " energySource="OTHER" minP="-10000.0" maxP="10000.0" voltageRegulatorOn="true" targetP="0.0" targetV="0.998" targetQ="1.259" bus="B62" connectableBus="B62">
                <iidm:minMaxReactiveLimits minQ="-20.0" maxQ="20.0"/>
            </iidm:generator>
            <iidm:load id="B62-L1 " loadType="UNDEFINED" p0="77.0" q0="14.0" bus="B62" connectableBus="B62"/>
        </iidm:voltageLevel>
    </iidm:substation>
    <iidm:substation id="S99">
        <iidm:voltageLevel id="VL65" nominalV="1.0" topologyKind="BUS_BREAKER">
            <iidm:busBreakerTopology>
                <iidm:bus id="B65" name="Muskngum    " v="1.005" angle="27.7224"/>
            </iidm:busBreakerTopology>
            <iidm:generator id="B65-G1 " energySource="OTHER" minP="-10000.0" maxP="10000.0" voltageRegulatorOn="true" targetP="391.0" targetV="1.005" targetQ="80.812" bus="B65" connectableBus="B65">
                <iidm:minMaxReactiveLimits minQ="-67.0" maxQ="200.0"/>
            </iidm:generator>
        </iidm:voltageLevel>
        <iidm:voltageLevel id="VL66" nominalV="1.0" topologyKind="BUS_BREAKER">
            <iidm:busBreakerTopology>
                <iidm:bus id="B66" name="Muskngum    " v="1.05" angle="27.5634"/>
            </iidm:busBreakerTopology>
            <iidm:generator id="B66-G1 " energySource="OTHER" minP="-10000.0" maxP="10000.0" voltageRegulatorOn="true" targetP="392.0" targetV="1.05" targetQ="-1.951" bus="B66" connectableBus="B66">
                <iidm:minMaxReactiveLimits minQ="-67.0" maxQ="200.0"/>
            </iidm:generator>
            <iidm:load id="B66-L1 " loadType="UNDEFINED" p0="39.0" q0="18.0" bus="B66" connectableBus="B66"/>
        </iidm:voltageLevel>
        <iidm:twoWindingsTransformer id="T-65-66-1 " r="0.0" x="3.7E-4" g="0.0" b="0.0" ratedU1="0.935" ratedU2="1.0" bus1="B65" connectableBus1="B65" voltageLevelId1="VL65" bus2="B66" connectableBus2="B66" voltageLevelId2="VL66"/>
    </iidm:substation>
    <iidm:substation id="S100">
        <iidm:voltageLevel id="VL67" nominalV="1.0" topologyKind="BUS_BREAKER">
            <iidm:busBreakerTopology>
                <iidm:bus id="B67" name="Summerfl    " v="1.01968" angle="24.9235"/>
            </iidm:busBreakerTopology>
            <iidm:load id="B67-L1 " loadType="UNDEFINED" p0="28.0" q0="7.0" bus="B67" connectableBus="B67"/>
        </iidm:voltageLevel>
    </iidm:substation>
    <iidm:substation id="S94">
        <iidm:voltageLevel id="VL68" nominalV="1.0" topologyKind="BUS_BREAKER">
            <iidm:busBreakerTopology>
                <iidm:bus id="B68" name="Sporn       " v="1.00325" angle="27.6013"/>
            </iidm:busBreakerTopology>
        </iidm:voltageLevel>
        <iidm:voltageLevel id="VL69" nominalV="1.0" topologyKind="BUS_BREAKER">
            <iidm:busBreakerTopology>
                <iidm:bus id="B69" name="Sporn       " v="1.035" angle="30.0"/>
            </iidm:busBreakerTopology>
            <iidm:generator id="B69-G1 " energySource="OTHER" minP="-10000.0" maxP="10000.0" voltageRegulatorOn="true" targetP="513.388" targetV="1.035" targetQ="-82.378" bus="B69" connectableBus="B69">
                <iidm:minMaxReactiveLimits minQ="-300.0" maxQ="300.0"/>
            </iidm:generator>
        </iidm:voltageLevel>
        <iidm:twoWindingsTransformer id="T-68-69-1 " r="0.0" x="3.7E-4" g="0.0" b="0.0" ratedU1="0.935" ratedU2="1.0" bus1="B68" connectableBus1="B68" voltageLevelId1="VL68" bus2="B69" connectableBus2="B69" voltageLevelId2="VL69"/>
    </iidm:substation>
    <iidm:substation id="S10">
        <iidm:voltageLevel id="VL70" nominalV="1.0" topologyKind="BUS_BREAKER">
            <iidm:busBreakerTopology>
                <iidm:bus id="B70" name="Portsmth    " v="0.984" angle="22.6205"/>
            </iidm:busBreakerTopology>
            <iidm:generator id="B70-G1 " energySource="OTHER" minP="-10000.0" maxP="10000.0" voltageRegulatorOn="true" targetP="0.0" targetV="0.984" targetQ="9.664" bus="B70" connectableBus="B70">
                <iidm:minMaxReactiveLimits minQ="-10.0" maxQ="32.0"/>
            </iidm:generator>
            <iidm:load id="B70-L1 " loadType="UNDEFINED" p0="66.0" q0="20.0" bus="B70" connectableBus="B70"/>
        </iidm:voltageLevel>
    </iidm:substation>
    <iidm:substation id="S12">
        <iidm:voltageLevel id="VL71" nominalV="1.0" topologyKind="BUS_BREAKER">
            <iidm:busBreakerTopology>
                <iidm:bus id="B71" name="NPortsmt    " v="0.98684" angle="22.2096"/>
            </iidm:busBreakerTopology>
        </iidm:voltageLevel>
    </iidm:substation>
    <iidm:substation id="S13">
        <iidm:voltageLevel id="VL72" nominalV="1.0" topologyKind="BUS_BREAKER">
            <iidm:busBreakerTopology>
                <iidm:bus id="B72" name="Hillsbro    " v="0.98" angle="21.112"/>
            </iidm:busBreakerTopology>
            <iidm:generator id="B72-G1 " energySource="OTHER" minP="-10000.0" maxP="10000.0" voltageRegulatorOn="true" targetP="0.0" targetV="0.98" targetQ="-11.13" bus="B72" connectableBus="B72">
                <iidm:minMaxReactiveLimits minQ="-100.0" maxQ="100.0"/>
            </iidm:generator>
            <iidm:load id="B72-L1 " loadType="UNDEFINED" p0="12.0" q0="0.0" bus="B72" connectableBus="B72"/>
        </iidm:voltageLevel>
    </iidm:substation>
    <iidm:substation id="S15">
        <iidm:voltageLevel id="VL73" nominalV="1.0" topologyKind="BUS_BREAKER">
            <iidm:busBreakerTopology>
                <iidm:bus id="B73" name="Sargents    " v="0.991" angle="21.9981"/>
            </iidm:busBreakerTopology>
            <iidm:generator id="B73-G1 " energySource="OTHER" minP="-10000.0" maxP="10000.0" voltageRegulatorOn="true" targetP="0.0" targetV="0.991" targetQ="9.651" bus="B73" connectableBus="B73">
                <iidm:minMaxReactiveLimits minQ="-100.0" maxQ="100.0"/>
            </iidm:generator>
            <iidm:load id="B73-L1 " loadType="UNDEFINED" p0="6.0" q0="0.0" bus="B73" connectableBus="B73"/>
        </iidm:voltageLevel>
    </iidm:substation>
    <iidm:substation id="S16">
        <iidm:voltageLevel id="VL74" nominalV="1.0" topologyKind="BUS_BREAKER">
            <iidm:busBreakerTopology>
                <iidm:bus id="B74" name="Bellefnt    " v="0.958" angle="21.6718"/>
            </iidm:busBreakerTopology>
            <iidm:generator id="B74-G1 " energySource="OTHER" minP="-10000.0" maxP="10000.0" voltageRegulatorOn="true" targetP="0.0" targetV="0.958" targetQ="-5.628" bus="B74" connectableBus="B74">
                <iidm:minMaxReactiveLimits minQ="-6.0" maxQ="9.0"/>
            </iidm:generator>
            <iidm:load id="B74-L1 " loadType="UNDEFINED" p0="68.0" q0="27.0" bus="B74" connectableBus="B74"/>
            <iidm:shunt id="B74-SH 1" sectionCount="1" voltageRegulatorOn="false" bus="B74" connectableBus="B74">
                <iidm:shuntLinearModel bPerSection="12.0" maximumSectionCount="1"/>
            </iidm:shunt>
        </iidm:voltageLevel>
    </iidm:substation>
    <iidm:substation id="S18">
        <iidm:voltageLevel id="VL75" nominalV="1.0" topologyKind="BUS_BREAKER">
            <iidm:busBreakerTopology>
                <iidm:bus id="B75" name="SthPoint    " v="0.96733" angle="22.9337"/>
            </iidm:busBreakerTopology>
            <iidm:load id="B75-L1 " loadType="UNDEFINED" p0="47.0" q0="11.0" bus="B75" connectableBus="B75"/>
        </iidm:voltageLevel>
    </iidm:substation>
    <iidm:substation id="S20">
        <iidm:voltageLevel id="VL76" nominalV="1.0" topologyKind="BUS_BREAKER">
            <iidm:busBreakerTopology>
                <iidm:bus id="B76" name="Darrah      " v="0.943" angle="21.8042"/>
            </iidm:busBreakerTopology>
            <iidm:generator id="B76-G1 " energySource="OTHER" minP="-10000.0" maxP="10000.0" voltageRegulatorOn="true" targetP="0.0" targetV="0.943" targetQ="5.269" bus="B76" connectableBus="B76">
                <iidm:minMaxReactiveLimits minQ="-8.0" maxQ="23.0"/>
            </iidm:generator>
            <iidm:load id="B76-L1 " loadType="UNDEFINED" p0="68.0" q0="36.0" bus="B76" connectableBus="B76"/>
        </iidm:voltageLevel>
    </iidm:substation>
    <iidm:substation id="S22">
        <iidm:voltageLevel id="VL77" nominalV="1.0" topologyKind="BUS_BREAKER">
            <iidm:busBreakerTopology>
                <iidm:bus id="B77" name="Turner      " v="1.006" angle="26.7587"/>
            </iidm:busBreakerTopology>
            <iidm:generator id="B77-G1 " energySource="OTHER" minP="-10000.0" maxP="10000.0" voltageRegulatorOn="true" targetP="0.0" targetV="1.006" targetQ="11.943" bus="B77" connectableBus="B77">
                <iidm:minMaxReactiveLimits minQ="-20.0" maxQ="70.0"/>
            </iidm:generator>
            <iidm:load id="B77-L1 " loadType="UNDEFINED" p0="61.0" q0="28.0" bus="B77" connectableBus="B77"/>
        </iidm:voltageLevel>
    </iidm:substation>
    <iidm:substation id="S24">
        <iidm:voltageLevel id="VL78" nominalV="1.0" topologyKind="BUS_BREAKER">
            <iidm:busBreakerTopology>
                <iidm:bus id="B78" name="Chemical    " v="1.00342" angle="26.4549"/>
            </iidm:busBreakerTopology>
            <iidm:load id="B78-L1 " loadType="UNDEFINED" p0="71.0" q0="26.0" bus="B78" connectableBus="B78"/>
        </iidm:voltageLevel>
    </iidm:substation>
    <iidm:substation id="S11">
        <iidm:voltageLevel id="VL79" nominalV="1.0" topologyKind="BUS_BREAKER">
            <iidm:busBreakerTopology>
                <iidm:bus id="B79" name="CapitlHl    " v="1.00922" angle="26.7541"/>
            </iidm:busBreakerTopology>
            <iidm:load id="B79-L1 " loadType="UNDEFINED" p0="39.0" q0="32.0" bus="B79" connectableBus="B79"/>
            <iidm:shunt id="B79-SH 1" sectionCount="1" voltageRegulatorOn="false" bus="B79" connectableBus="B79">
                <iidm:shuntLinearModel bPerSection="20.0" maximumSectionCount="1"/>
            </iidm:shunt>
        </iidm:voltageLevel>
    </iidm:substation>
    <iidm:substation id="S1">
        <iidm:voltageLevel id="VL80" nominalV="1.0" topologyKind="BUS_BREAKER">
            <iidm:busBreakerTopology>
                <iidm:bus id="B80" name="CabinCrk    " v="1.04" angle="28.9999"/>
            </iidm:busBreakerTopology>
            <iidm:generator id="B80-G1 " energySource="OTHER" minP="-10000.0" maxP="10000.0" voltageRegulatorOn="true" targetP="477.0" targetV="1.04" targetQ="105.05" bus="B80" connectableBus="B80">
                <iidm:minMaxReactiveLimits minQ="-165.0" maxQ="280.0"/>
            </iidm:generator>
            <iidm:load id="B80-L1 " loadType="UNDEFINED" p0="130.0" q0="26.0" bus="B80" connectableBus="B80"/>
        </iidm:voltageLevel>
        <iidm:voltageLevel id="VL81" nominalV="1.0" topologyKind="BUS_BREAKER">
            <iidm:busBreakerTopology>
                <iidm:bus id="B81" name="Kanawha     " v="0.99681" angle="28.1508"/>
            </iidm:busBreakerTopology>
        </iidm:voltageLevel>
        <iidm:twoWindingsTransformer id="T-81-80-1 " r="0.0" x="3.7E-4" g="0.0" b="0.0" ratedU1="0.935" ratedU2="1.0" bus1="B81" connectableBus1="B81" voltageLevelId1="VL81" bus2="B80" connectableBus2="B80" voltageLevelId2="VL80"/>
    </iidm:substation>
    <iidm:substation id="S2">
        <iidm:voltageLevel id="VL82" nominalV="1.0" topologyKind="BUS_BREAKER">
            <iidm:busBreakerTopology>
                <iidm:bus id="B82" name="Logan       " v="0.98874" angle="27.2804"/>
            </iidm:busBreakerTopology>
            <iidm:load id="B82-L1 " loadType="UNDEFINED" p0="54.0" q0="27.0" bus="B82" connectableBus="B82"/>
            <iidm:shunt id="B82-SH 1" sectionCount="1" voltageRegulatorOn="false" bus="B82" connectableBus="B82">
                <iidm:shuntLinearModel bPerSection="20.0" maximumSectionCount="1"/>
            </iidm:shunt>
        </iidm:voltageLevel>
    </iidm:substation>
    <iidm:substation id="S3">
        <iidm:voltageLevel id="VL83" nominalV="1.0" topologyKind="BUS_BREAKER">
            <iidm:busBreakerTopology>
                <iidm:bus id="B83" name="Sprigg      " v="0.98452" angle="28.4707"/>
            </iidm:busBreakerTopology>
            <iidm:load id="B83-L1 " loadType="UNDEFINED" p0="20.0" q0="10.0" bus="B83" connectableBus="B83"/>
            <iidm:shunt id="B83-SH 1" sectionCount="1" voltageRegulatorOn="false" bus="B83" connectableBus="B83">
                <iidm:shuntLinearModel bPerSection="10.0" maximumSectionCount="1"/>
            </iidm:shunt>
        </iidm:voltageLevel>
    </iidm:substation>
    <iidm:substation id="S4">
        <iidm:voltageLevel id="VL84" nominalV="1.0" topologyKind="BUS_BREAKER">
            <iidm:busBreakerTopology>
                <iidm:bus id="B84" name="BetsyLne    " v="0.97975" angle="31.0046"/>
            </iidm:busBreakerTopology>
            <iidm:load id="B84-L1 " loadType="UNDEFINED" p0="11.0" q0="7.0" bus="B84" connectableBus="B84"/>
        </iidm:voltageLevel>
    </iidm:substation>
    <iidm:substation id="S5">
        <iidm:voltageLevel id="VL85" nominalV="1.0" topologyKind="BUS_BREAKER">
            <iidm:busBreakerTopology>
                <iidm:bus id="B85" name="BeaverCk    " v="0.985" angle="32.5588"/>
            </iidm:busBreakerTopology>
            <iidm:generator id="B85-G1 " energySource="OTHER" minP="-10000.0" maxP="10000.0" voltageRegulatorOn="true" targetP="0.0" targetV="0.985" targetQ="-5.768" bus="B85" connectableBus="B85">
                <iidm:minMaxReactiveLimits minQ="-8.0" maxQ="23.0"/>
            </iidm:generator>
            <iidm:load id="B85-L1 " loadType="UNDEFINED" p0="24.0" q0="15.0" bus="B85" connectableBus="B85"/>
        </iidm:voltageLevel>
    </iidm:substation>
    <iidm:substation id="S6">
        <iidm:voltageLevel id="VL86" nominalV="1.0" topologyKind="BUS_BREAKER">
            <iidm:busBreakerTopology>
                <iidm:bus id="B86" name="Hazard      " v="0.98669" angle="31.1894"/>
            </iidm:busBreakerTopology>
            <iidm:load id="B86-L1 " loadType="UNDEFINED" p0="21.0" q0="10.0" bus="B86" connectableBus="B86"/>
        </iidm:voltageLevel>
    </iidm:substation>
    <iidm:substation id="S7">
        <iidm:voltageLevel id="VL87" nominalV="1.0" topologyKind="BUS_BREAKER">
            <iidm:busBreakerTopology>
                <iidm:bus id="B87" name="Pinevlle    " v="1.015" angle="31.4486"/>
            </iidm:busBreakerTopology>
            <iidm:generator id="B87-G1 " energySource="OTHER" minP="-10000.0" maxP="10000.0" voltageRegulatorOn="true" targetP="4.0" targetV="1.015" targetQ="11.022" bus="B87" connectableBus="B87">
                <iidm:minMaxReactiveLimits minQ="-100.0" maxQ="1000.0"/>
            </iidm:generator>
        </iidm:voltageLevel>
    </iidm:substation>
    <iidm:substation id="S8">
        <iidm:voltageLevel id="VL88" nominalV="1.0" topologyKind="BUS_BREAKER">
            <iidm:busBreakerTopology>
                <iidm:bus id="B88" name="Fremont     " v="0.98746" angle="35.6902"/>
            </iidm:busBreakerTopology>
            <iidm:load id="B88-L1 " loadType="UNDEFINED" p0="48.0" q0="10.0" bus="B88" connectableBus="B88"/>
        </iidm:voltageLevel>
    </iidm:substation>
    <iidm:substation id="S9">
        <iidm:voltageLevel id="VL89" nominalV="1.0" topologyKind="BUS_BREAKER">
            <iidm:busBreakerTopology>
                <iidm:bus id="B89" name="ClinchRv    " v="1.005" angle="39.7458"/>
            </iidm:busBreakerTopology>
            <iidm:generator id="B89-G1 " energySource="OTHER" minP="-10000.0" maxP="10000.0" voltageRegulatorOn="true" targetP="607.0" targetV="1.005" targetQ="-11.794" bus="B89" connectableBus="B89">
                <iidm:minMaxReactiveLimits minQ="-210.0" maxQ="300.0"/>
            </iidm:generator>
        </iidm:voltageLevel>
    </iidm:substation>
    <iidm:substation id="S48">
        <iidm:voltageLevel id="VL90" nominalV="1.0" topologyKind="BUS_BREAKER">
            <iidm:busBreakerTopology>
                <iidm:bus id="B90" name="Holston     " v="0.985" angle="33.3411"/>
            </iidm:busBreakerTopology>
            <iidm:generator id="B90-G1 " energySource="OTHER" minP="-10000.0" maxP="10000.0" voltageRegulatorOn="true" targetP="0.0" targetV="0.985" targetQ="59.3" bus="B90" connectableBus="B90">
                <iidm:minMaxReactiveLimits minQ="-300.0" maxQ="300.0"/>
            </iidm:generator>
            <iidm:load id="B90-L1 " loadType="UNDEFINED" p0="163.0" q0="42.0" bus="B90" connectableBus="B90"/>
        </iidm:voltageLevel>
    </iidm:substation>
    <iidm:substation id="S49">
        <iidm:voltageLevel id="VL91" nominalV="1.0" topologyKind="BUS_BREAKER">
            <iidm:busBreakerTopology>
                <iidm:bus id="B91" name="HolstonT    " v="0.98" angle="33.3601"/>
            </iidm:busBreakerTopology>
            <iidm:generator id="B91-G1 " energySource="OTHER" minP="-10000.0" maxP="10000.0" voltageRegulatorOn="true" targetP="0.0" targetV="0.98" targetQ="-14.847" bus="B91" connectableBus="B91">
                <iidm:minMaxReactiveLimits minQ="-100.0" maxQ="100.0"/>
            </iidm:generator>
            <iidm:load id="B91-L1 " loadType="UNDEFINED" p0="10.0" q0="0.0" bus="B91" connectableBus="B91"/>
        </iidm:voltageLevel>
    </iidm:substation>
    <iidm:substation id="S50">
        <iidm:voltageLevel id="VL92" nominalV="1.0" topologyKind="BUS_BREAKER">
            <iidm:busBreakerTopology>
                <iidm:bus id="B92" name="Saltvlle    " v="0.99228" angle="33.8592"/>
            </iidm:busBreakerTopology>
            <iidm:generator id="B92-G1 " energySource="OTHER" minP="-10000.0" maxP="10000.0" voltageRegulatorOn="true" targetP="0.0" targetV="0.99" targetQ="-3.0" bus="B92" connectableBus="B92">
                <iidm:minMaxReactiveLimits minQ="-3.0" maxQ="9.0"/>
            </iidm:generator>
            <iidm:load id="B92-L1 " loadType="UNDEFINED" p0="65.0" q0="10.0" bus="B92" connectableBus="B92"/>
        </iidm:voltageLevel>
    </iidm:substation>
    <iidm:substation id="S58">
        <iidm:voltageLevel id="VL93" nominalV="1.0" topologyKind="BUS_BREAKER">
            <iidm:busBreakerTopology>
                <iidm:bus id="B93" name="Tazewell    " v="0.98691" angle="30.8481"/>
            </iidm:busBreakerTopology>
            <iidm:load id="B93-L1 " loadType="UNDEFINED" p0="12.0" q0="7.0" bus="B93" connectableBus="B93"/>
        </iidm:voltageLevel>
    </iidm:substation>
    <iidm:substation id="S59">
        <iidm:voltageLevel id="VL94" nominalV="1.0" topologyKind="BUS_BREAKER">
            <iidm:busBreakerTopology>
                <iidm:bus id="B94" name="Switchbk    " v="0.99057" angle="28.6941"/>
            </iidm:busBreakerTopology>
            <iidm:load id="B94-L1 " loadType="UNDEFINED" p0="30.0" q0="16.0" bus="B94" connectableBus="B94"/>
        </iidm:voltageLevel>
    </iidm:substation>
    <iidm:substation id="S60">
        <iidm:voltageLevel id="VL95" nominalV="1.0" topologyKind="BUS_BREAKER">
            <iidm:busBreakerTopology>
                <iidm:bus id="B95" name="Caldwell    " v="0.98092" angle="27.7218"/>
            </iidm:busBreakerTopology>
            <iidm:load id="B95-L1 " loadType="UNDEFINED" p0="42.0" q0="31.0" bus="B95" connectableBus="B95"/>
        </iidm:voltageLevel>
    </iidm:substation>
    <iidm:substation id="S61">
        <iidm:voltageLevel id="VL96" nominalV="1.0" topologyKind="BUS_BREAKER">
            <iidm:busBreakerTopology>
                <iidm:bus id="B96" name="Baileysv    " v="0.99267" angle="27.5539"/>
            </iidm:busBreakerTopology>
            <iidm:load id="B96-L1 " loadType="UNDEFINED" p0="38.0" q0="15.0" bus="B96" connectableBus="B96"/>
        </iidm:voltageLevel>
    </iidm:substation>
    <iidm:substation id="S62">
        <iidm:voltageLevel id="VL97" nominalV="1.0" topologyKind="BUS_BREAKER">
            <iidm:busBreakerTopology>
                <iidm:bus id="B97" name="Sundial     " v="1.01137" angle="27.9264"/>
            </iidm:busBreakerTopology>
            <iidm:load id="B97-L1 " loadType="UNDEFINED" p0="15.0" q0="9.0" bus="B97" connectableBus="B97"/>
        </iidm:voltageLevel>
    </iidm:substation>
    <iidm:substation id="S64">
        <iidm:voltageLevel id="VL98" nominalV="1.0" topologyKind="BUS_BREAKER">
            <iidm:busBreakerTopology>
                <iidm:bus id="B98" name="Bradley     " v="1.02351" angle="27.4497"/>
            </iidm:busBreakerTopology>
            <iidm:load id="B98-L1 " loadType="UNDEFINED" p0="34.0" q0="8.0" bus="B98" connectableBus="B98"/>
        </iidm:voltageLevel>
    </iidm:substation>
    <iidm:substation id="S67">
        <iidm:voltageLevel id="VL99" nominalV="1.0" topologyKind="BUS_BREAKER">
            <iidm:busBreakerTopology>
                <iidm:bus id="B99" name="Hinton      " v="1.01" angle="27.0891"/>
            </iidm:busBreakerTopology>
            <iidm:generator id="B99-G1 " energySource="OTHER" minP="-10000.0" maxP="10000.0" voltageRegulatorOn="true" targetP="0.0" targetV="1.01" targetQ="-17.537" bus="B99" connectableBus="B99">
                <iidm:minMaxReactiveLimits minQ="-100.0" maxQ="100.0"/>
            </iidm:generator>
            <iidm:load id="B99-L1 " loadType="UNDEFINED" p0="42.0" q0="0.0" bus="B99" connectableBus="B99"/>
        </iidm:voltageLevel>
    </iidm:substation>
    <iidm:substation id="S85">
        <iidm:voltageLevel id="VL100" nominalV="1.0" topologyKind="BUS_BREAKER">
            <iidm:busBreakerTopology>
                <iidm:bus id="B100" name="Glen Lyn    " v="1.017" angle="28.0863"/>
            </iidm:busBreakerTopology>
            <iidm:generator id="B100-G1 " energySource="OTHER" minP="-10000.0" maxP="10000.0" voltageRegulatorOn="true" targetP="252.0" targetV="1.017" targetQ="110.058" bus="B100" connectableBus="B100">
                <iidm:minMaxReactiveLimits minQ="-50.0" maxQ="155.0"/>
            </iidm:generator>
            <iidm:load id="B100-L1 " loadType="UNDEFINED" p0="37.0" q0="18.0" bus="B100" connectableBus="B100"/>
        </iidm:voltageLevel>
    </iidm:substation>
    <iidm:substation id="S84">
        <iidm:voltageLevel id="VL101" nominalV="1.0" topologyKind="BUS_BREAKER">
            <iidm:busBreakerTopology>
                <iidm:bus id="B101" name="Wythe       " v="0.99244" angle="29.6586"/>
            </iidm:busBreakerTopology>
            <iidm:load id="B101-L1 " loadType="UNDEFINED" p0="22.0" q0="15.0" bus="B101" connectableBus="B101"/>
        </iidm:voltageLevel>
    </iidm:substation>
    <iidm:substation id="S83">
        <iidm:voltageLevel id="VL102" nominalV="1.0" topologyKind="BUS_BREAKER">
            <iidm:busBreakerTopology>
                <iidm:bus id="B102" name="Smythe      " v="0.991" angle="32.356"/>
            </iidm:busBreakerTopology>
            <iidm:load id="B102-L1 " loadType="UNDEFINED" p0="5.0" q0="3.0" bus="B102" connectableBus="B102"/>
...